final/Texas2k_series24_cases_with_dynamics/Texas2k_series24_case6_2024lowloadwithgfm/Texas2k_series24_case6_2024lowloadwithgfm.RAW
@!IC, SBASE,REV,XFRRAT,NXFRAT,BASFRQ
 0,    100.00, 34, 0, 0, 60.00       / August 30, 2024 16:12:54; Simulator Version 23; BuildDate 2023_10_25
Texas2k_series24_case6_2024lowloadwithgfm
This is a synthetic power system model that does NOT represent the actual grid. 
GENERAL, THRSHZ=0.0002, PQBRAK=0.7, BLOWUP=5.0
GAUSS, ITMX=100, ACCP=1.6, ACCQ=1.6, ACCM=1.0, TOL=0.0001
NEWTON, ITMXN=50, ACCN=1.0, TOLN=0.1, VCTOLQ=0.1, VCTOLV=0.00001, DVLIM=0.99, NDVFCT=0.99
ADJUST, ADJTHR=0.005, ACCTAP=1.0, TAPLIM=0.05, SWVBND=100.0, MXTPSS=99, MXSWIM=10
TYSL, ITMXTY=20, ACCTY=1.0, TOLTY=0.00001
SOLVER, FNSL, ACTAPS=1, AREAIN=1, PHSHFT=1, DCTAPS=1, SWSHNT=1, FLATST=0, VARLIM=0, NONDIV=0
RATING, 1, "      ", "                                "
RATING, 2, "      ", "                                "
RATING, 3, "      ", "                                "
RATING, 4, "      ", "                                "
RATING, 5, "      ", "                                "
RATING, 6, "      ", "                                "
RATING, 7, "      ", "                                "
RATING, 8, "      ", "                                "
RATING, 9, "      ", "                                "
RATING,10, "      ", "                                "
RATING,11, "      ", "                                "
RATING,12, "      ", "                                "
 0 / END OF SYSTEM-WIDE DATA, BEGIN BUS DATA
@!   I,'NAME        ', BASKV, IDE,AREA,ZONE,OWNER, VM,        VA,    NVHI,   NVLO,   EVHI,   EVLO
 1001,'ODESSA 2 0  ', 115.0000,1,   1,   9,   1,0.96774006,  12.435699, 1.10000, 0.90000, 1.10000, 0.90000
 1002,'PRESIDIO 2 0', 115.0000,1,   1,   9,   1,1.02538729,  40.082603, 1.10000, 0.90000, 1.10000, 0.90000
 1003,'O DONNELL ~1', 115.0000,1,   1,   9,   1,0.99310923,  28.524197, 1.10000, 0.90000, 1.10000, 0.90000
 1004,'O DONNELL ~2', 230.0000,2,   1,   9,   1,0.99417245,  20.058633, 1.10000, 0.90000, 1.10000, 0.90000
 1005,'BIG SPRING~8', 115.0000,1,   1,   9,   1,0.99589688,  29.058852, 1.10000, 0.90000, 1.10000, 0.90000
 1006,'BIG SPRING~9',  13.8000,2,   1,   9,   1,1.00000000,  30.139193, 1.10000, 0.90000, 1.10000, 0.90000
 1007,'VAN HORN 0  ', 115.0000,2,   1,   9,   1,1.03006995,  45.060271, 1.10000, 0.90000, 1.10000, 0.90000
 1008,'IRAAN 2 0   ', 115.0000,1,   1,   9,   1,0.98998958,  31.145721, 1.10000, 0.90000, 1.10000, 0.90000
 1009,'IRAAN 2 1   ',  13.8000,2,   1,   9,   1,1.00000000,  34.514213, 1.10000, 0.90000, 1.10000, 0.90000
 1010,'PRESIDIO 1 0', 115.0000,1,   1,   9,   1,1.02999997,  40.056020, 1.10000, 0.90000, 1.10000, 0.90000
 1011,'PRESIDIO 1 1',  22.0000,2,   1,   9,   1,1.03021777,  41.808981, 1.10000, 0.90000, 1.10000, 0.90000
 1012,'SANDERSON 0 ', 115.0000,1,   1,   9,   1,0.95447248,  15.366317, 1.10000, 0.90000, 1.10000, 0.90000
 1013,'MONAHANS 2 0', 115.0000,1,   1,   9,   1,0.99147052,  28.489971, 1.10000, 0.90000, 1.10000, 0.90000
 1014,'GRANDFALLS 0', 115.0000,1,   1,   9,   1,0.99133438,  30.215476, 1.10000, 0.90000, 1.10000, 0.90000
 1015,'MARFA 0     ', 115.0000,1,   1,   9,   1,1.03046560,  41.323642, 1.10000, 0.90000, 1.10000, 0.90000
 1016,'GARDEN CIT~1', 115.0000,2,   1,   9,   1,1.00000000,  35.044919, 1.10000, 0.90000, 1.10000, 0.90000
 1017,'ODESSA 4 0  ', 115.0000,1,   1,   9,   1,0.97676396,  18.415322, 1.10000, 0.90000, 1.10000, 0.90000
 1018,'NOTREES 0   ', 115.0000,1,   1,   9,   1,0.98750949,  19.826156, 1.10000, 0.90000, 1.10000, 0.90000
 1019,'MIDLAND 4 0 ', 115.0000,1,   1,   9,   1,0.98105162,  15.089129, 1.10000, 0.90000, 1.10000, 0.90000
 1020,'BIG SPRING~1', 115.0000,1,   1,   9,   1,0.99120927,  23.859878, 1.10000, 0.90000, 1.10000, 0.90000
 1021,'BIG SPRING~2',  13.8000,2,   1,   9,   1,1.00000000,  27.220706, 1.10000, 0.90000, 1.10000, 0.90000
 1022,'O DONNELL ~3', 115.0000,2,   1,   9,   1,0.99915487,  29.758878, 1.10000, 0.90000, 1.10000, 0.90000
 1023,'O DONNELL ~4',  13.8000,2,   1,   9,   1,1.00999999,  38.237462, 1.10000, 0.90000, 1.10000, 0.90000
 1024,'ODESSA 6 0  ', 115.0000,1,   1,   9,   1,0.99135393,  21.003574, 1.10000, 0.90000, 1.10000, 0.90000
 1025,'BIG SPRIN~14', 115.0000,1,   1,   9,   1,0.99278456,  25.440786, 1.10000, 0.90000, 1.10000, 0.90000
 1026,'BIG SPRIN~15',  13.8000,2,   1,   9,   1,1.00000000,  35.165144, 1.10000, 0.90000, 1.10000, 0.90000
 1027,'MIDLAND 2 0 ', 115.0000,2,   1,   9,   1,0.99168122,  18.033313, 1.10000, 0.90000, 1.10000, 0.90000
 1028,'COAHOMA 0   ', 115.0000,2,   1,   9,   1,1.00000000,  25.484998, 1.10000, 0.90000, 1.10000, 0.90000
 1029,'MIDLAND 3 0 ', 115.0000,2,   1,   9,   1,1.00000000,  19.024717, 1.10000, 0.90000, 1.10000, 0.90000
 1030,'ALPINE 0    ', 115.0000,2,   1,   9,   1,1.00790393,  36.675807, 1.10000, 0.90000, 1.10000, 0.90000
 1031,'FORT DAVIS 0', 115.0000,1,   1,   9,   1,1.00267088,  36.525939, 1.10000, 0.90000, 1.10000, 0.90000
 1032,'MCCAMEY 1 0 ', 115.0000,2,   1,   9,   1,0.96898258,  29.324283, 1.10000, 0.90000, 1.10000, 0.90000
 1033,'MCCAMEY 1 1 ', 230.0000,2,   1,   9,   1,0.97265846,  25.720778, 1.10000, 0.90000, 1.10000, 0.90000
 1034,'BIG SPRING~6', 115.0000,1,   1,   9,   1,0.99904132,  31.647357, 1.10000, 0.90000, 1.10000, 0.90000
 1035,'BIG SPRING~7',  13.8000,2,   1,   9,   1,1.00000000,  34.939150, 1.10000, 0.90000, 1.10000, 0.90000
 1036,'CRANE 0     ', 115.0000,2,   1,   9,   1,0.98259878,  33.529037, 1.10000, 0.90000, 1.10000, 0.90000
 1037,'ODESSA 5 0  ', 115.0000,2,   1,   9,   1,0.97216153,  16.363223, 1.10000, 0.90000, 1.10000, 0.90000
 1038,'FORT STOCK~1', 115.0000,1,   1,   9,   1,0.99402112,  34.315072, 1.10000, 0.90000, 1.10000, 0.90000
 1039,'FORT STOCK~2',  22.0000,2,   1,   9,   1,1.00000000,  39.790493, 1.10000, 0.90000, 1.10000, 0.90000
 1040,'ANDREWS 0   ', 115.0000,2,   1,   9,   1,1.00000000,  23.719633, 1.10000, 0.90000, 1.10000, 0.90000
 1041,'FORSAN 0    ', 115.0000,1,   1,   9,   1,1.00116825,  30.701618, 1.10000, 0.90000, 1.10000, 0.90000
 1042,'FORSAN 1    ',  13.8000,1,   1,   9,   1,1.00116825,  30.701618, 1.10000, 0.90000, 1.10000, 0.90000
 1043,'FORSAN 2    ',  13.8000,2,   1,   9,   1,1.00000000,  33.946102, 1.10000, 0.90000, 1.10000, 0.90000
 1044,'BIG LAKE 0  ', 115.0000,2,   1,   9,   1,1.00000000,  14.102308, 1.10000, 0.90000, 1.10000, 0.90000
 1045,'MIDLAND 5 0 ', 115.0000,1,   1,   9,   1,0.96472800,  13.590683, 1.10000, 0.90000, 1.10000, 0.90000
 1046,'OZONA 0     ', 115.0000,2,   1,   9,   1,1.00000000,  25.817813, 1.10000, 0.90000, 1.10000, 0.90000
 1047,'MONAHANS 1 0', 115.0000,1,   1,   9,   1,0.99093050,  24.573632, 1.10000, 0.90000, 1.10000, 0.90000
 1048,'MONAHANS 1 1',  18.0000,1,   1,   9,   1,0.99093050,  24.573632, 1.10000, 0.90000, 1.10000, 0.90000
 1049,'MONAHANS 1 2',  18.0000,1,   1,   9,   1,0.99093050,  24.573632, 1.10000, 0.90000, 1.10000, 0.90000
 1050,'MONAHANS 1 3',  18.0000,2,   1,   9,   1,1.00000000,  25.404002, 1.10000, 0.90000, 1.10000, 0.90000
 1051,'MONAHANS 1 4',  18.0000,2,   1,   9,   1,1.00000000,  26.015827, 1.10000, 0.90000, 1.10000, 0.90000
 1052,'MONAHANS 1 5',  18.0000,2,   1,   9,   1,1.00000000,  25.254613, 1.10000, 0.90000, 1.10000, 0.90000
 1053,'MONAHANS 1 6', 230.0000,1,   1,   9,   1,0.98410237,  22.271392, 1.10000, 0.90000, 1.10000, 0.90000
 1054,'STANTON 0   ', 115.0000,1,   1,   9,   1,0.99531209,  24.646785, 1.10000, 0.90000, 1.10000, 0.90000
 1055,'ODONNELL 0  ', 115.0000,2,   1,   9,   1,1.00000000,  29.405607, 1.10000, 0.90000, 1.10000, 0.90000
 1056,'LENORAH 0   ', 115.0000,1,   1,   9,   1,1.01221263,  22.728187, 1.10000, 0.90000, 1.10000, 0.90000
 1057,'LENORAH 1   ',  18.0000,1,   1,   9,   1,1.01221263,  22.728187, 1.10000, 0.90000, 1.10000, 0.90000
 1058,'IRAAN 3 0   ', 115.0000,1,   1,   9,   1,0.99278402,  28.863601, 1.10000, 0.90000, 1.10000, 0.90000
 1059,'IRAAN 3 1   ',  22.0000,1,   1,   9,   1,0.99278402,  28.863601, 1.10000, 0.90000, 1.10000, 0.90000
 1060,'IRAAN 3 2   ',  22.0000,1,   1,   9,   1,0.99278402,  28.863601, 1.10000, 0.90000, 1.10000, 0.90000
 1061,'BIG SPRIN~10', 115.0000,2,   1,   9,   1,1.00000000,  27.835550, 1.10000, 0.90000, 1.10000, 0.90000
 1062,'BIG SPRIN~11',  13.8000,2,   1,   9,   1,1.00999999,  30.177395, 1.10000, 0.90000, 1.10000, 0.90000
 1063,'BIG SPRIN~12',  13.8000,2,   1,   9,   1,1.00999999,  30.910667, 1.10000, 0.90000, 1.10000, 0.90000
 1064,'ODESSA 3 0  ', 115.0000,1,   1,   9,   1,0.95923412,  11.633721, 1.10000, 0.90000, 1.10000, 0.90000
 1065,'BIG SPRING~4', 115.0000,1,   1,   9,   1,1.00252855,  30.700140, 1.10000, 0.90000, 1.10000, 0.90000
 1066,'BIG SPRING~5',  13.8000,2,   1,   9,   1,1.00000000,  38.242622, 1.10000, 0.90000, 1.10000, 0.90000
 1067,'BIG SPRIN~13', 115.0000,1,   1,   9,   1,0.99889392,  30.264906, 1.10000, 0.90000, 1.10000, 0.90000
 1068,'MIDLAND 1 0 ', 115.0000,1,   1,   9,   1,0.97318459,  31.319061, 1.10000, 0.90000, 1.10000, 0.90000
 1069,'IRAAN 1 0   ', 115.0000,1,   1,   9,   1,0.99711955,  31.714467, 1.10000, 0.90000, 1.10000, 0.90000
 1070,'IRAAN 1 1   ',  13.8000,2,   1,   9,   1,1.02072799,  36.406250, 1.10000, 0.90000, 1.10000, 0.90000
 1071,'ODESSA 1 0  ', 115.0000,1,   1,   9,   1,0.97599238,  13.275124, 1.10000, 0.90000, 1.10000, 0.90000
 1072,'ODESSA 1 1  ',  18.0000,2,   1,   9,   1,1.00999999,  14.729192, 1.10000, 0.90000, 1.10000, 0.90000
 1073,'ODESSA 1 2  ',  18.0000,2,   1,   9,   1,1.00999999,  15.828630, 1.10000, 0.90000, 1.10000, 0.90000
 1074,'ODESSA 1 3  ',  18.0000,2,   1,   9,   1,1.00999999,  15.476538, 1.10000, 0.90000, 1.10000, 0.90000
 1075,'ODESSA 1 4  ',  18.0000,2,   1,   9,   1,1.00999999,  15.035188, 1.10000, 0.90000, 1.10000, 0.90000
 1076,'ODESSA 1 5  ',  18.0000,1,   1,   9,   1,0.97599238,  13.275124, 1.10000, 0.90000, 1.10000, 0.90000
 1077,'ODESSA 1 6  ',  18.0000,1,   1,   9,   1,0.97599238,  13.275124, 1.10000, 0.90000, 1.10000, 0.90000
 1078,'ODESSA 1 7  ',  18.0000,2,   1,   9,   1,1.00000000,  15.401826, 1.10000, 0.90000, 1.10000, 0.90000
 1079,'ODESSA 1 8  ', 500.0000,2,   1,   9,   1,0.98939633,  -2.392023, 1.10000, 0.90000, 1.10000, 0.90000
 1080,'ODESSA 1 9  ',  18.0000,2,   1,   9,   1,1.00999999,  15.008439, 1.10000, 0.90000, 1.10000, 0.90000
 1081,'ODESSA 1 10 ', 230.0000,1,   1,   9,   1,0.97746694,  20.701641, 1.10000, 0.90000, 1.10000, 0.90000
 1082,'FORT STOCK~3', 115.0000,2,   1,   9,   1,1.00000000,  34.573659, 1.10000, 0.90000, 1.10000, 0.90000
 1083,'FORT STOCK~4', 115.0000,2,   1,   9,   1,1.00000000,  37.320727, 1.10000, 0.90000, 1.10000, 0.90000
 1084,'BIG SPRING~3', 115.0000,2,   1,   9,   1,0.99657065,  22.160064, 1.10000, 0.90000, 1.10000, 0.90000
 1085,'KERMIT 0    ', 115.0000,2,   1,   9,   1,1.00000000,  27.845179, 1.10000, 0.90000, 1.10000, 0.90000
 1086,'PECOS 0     ', 115.0000,2,   1,   9,   1,1.01256287,  27.461066, 1.10000, 0.90000, 1.10000, 0.90000
 1087,'SHEFFIELD 0 ', 115.0000,1,   1,   9,   1,0.99288356,  23.324036, 1.10000, 0.90000, 1.10000, 0.90000
 1088,'MCCAMEY 2 0 ', 115.0000,2,   1,   9,   1,0.99734247,  34.792611, 1.10000, 0.90000, 1.10000, 0.90000
 1089,'LAMESA 0    ', 115.0000,2,   1,   9,   1,1.00000000,  31.782813, 1.10000, 0.90000, 1.10000, 0.90000
 1090,'GOLDSMITH 0 ', 115.0000,2,   1,   9,   1,1.00413561,  23.062211, 1.10000, 0.90000, 1.10000, 0.90000
 1091,'RALLS 2 0   ', 161.0000,1,   1,   9,   1,0.97448903,  27.192197, 1.10000, 0.90000, 1.10000, 0.90000
 2001,'PARIS 3 0   ', 161.0000,1,   2,  11,   1,1.02190638, -30.898785, 1.10000, 0.90000, 1.10000, 0.90000
 2002,'SAVOY 0     ', 500.0000,1,   2,  11,   1,1.02871644, -29.116277, 1.10000, 0.90000, 1.10000, 0.90000
 2003,'SAVOY 1     ', 161.0000,1,   2,  11,   1,1.02653992, -30.819552, 1.10000, 0.90000, 1.10000, 0.90000
 2004,'SAVOY 2     ',  13.8000,1,   2,  11,   1,1.02871644, -29.116277, 1.10000, 0.90000, 1.10000, 0.90000
 2005,'SAVOY 3     ',  13.8000,1,   2,  11,   1,1.02871644, -29.116277, 1.10000, 0.90000, 1.10000, 0.90000
 2006,'SAVOY 4     ',  13.8000,1,   2,  11,   1,1.02871644, -29.116277, 1.10000, 0.90000, 1.10000, 0.90000
 2007,'HONEY GROV~1', 161.0000,1,   2,  11,   1,1.02458394, -30.007989, 1.10000, 0.90000, 1.10000, 0.90000
 2008,'MEMPHIS 0   ', 161.0000,2,   2,  10,   1,1.00342512,  36.209630, 1.10000, 0.90000, 1.10000, 0.90000
 2009,'IOWA PARK 0 ', 161.0000,1,   2,  11,   1,0.99173915,   2.647576, 1.10000, 0.90000, 1.10000, 0.90000
 2010,'VERNON 2 0  ', 161.0000,2,   2,  10,   1,1.00000000,  25.455171, 1.10000, 0.90000, 1.10000, 0.90000
 2011,'PANHANDLE ~2', 500.0000,2,   2,  10,   1,1.01582801,  21.816990, 1.10000, 0.90000, 1.10000, 0.90000
 2012,'PANHANDLE ~3', 161.0000,2,   2,  10,   1,0.99402058,  28.662957, 1.10000, 0.90000, 1.10000, 0.90000
 2013,'PANHANDLE ~4',  18.0000,2,   2,  10,   1,1.00498152,  24.413075, 1.10000, 0.90000, 1.10000, 0.90000
 2014,'CHILDRESS 0 ', 161.0000,1,   2,  10,   1,0.99666548,  35.952401, 1.10000, 0.90000, 1.10000, 0.90000
 2015,'FORESTBURG 0', 161.0000,1,   2,  11,   1,0.99769342, -20.174222, 1.10000, 0.90000, 1.10000, 0.90000
 2016,'SHERMAN 3 0 ', 161.0000,2,   2,  11,   1,1.01594567, -35.864511, 1.10000, 0.90000, 1.10000, 0.90000
 2017,'PANHANDLE ~7', 500.0000,1,   2,  10,   1,1.02957428,  16.755530, 1.10000, 0.90000, 1.10000, 0.90000
 2018,'PANHANDLE ~8', 161.0000,1,   2,  10,   1,1.00445688,  20.684444, 1.10000, 0.90000, 1.10000, 0.90000
 2019,'PANHANDLE ~9',  20.0000,1,   2,  10,   1,1.02957428,  16.755530, 1.10000, 0.90000, 1.10000, 0.90000
 2020,'WICHITA F~12', 161.0000,1,   2,  11,   1,0.97344679,  -3.377224, 1.10000, 0.90000, 1.10000, 0.90000
 2021,'PARIS 2 0   ', 500.0000,1,   2,  11,   1,1.03441942, -27.981431, 1.10000, 0.90000, 1.10000, 0.90000
 2022,'PARIS 2 1   ', 161.0000,1,   2,  11,   1,1.03058565, -29.521092, 1.10000, 0.90000, 1.10000, 0.90000
 2023,'PARIS 2 2   ',  13.8000,1,   2,  11,   1,1.03441942, -27.981431, 1.10000, 0.90000, 1.10000, 0.90000
 2024,'PARIS 2 3   ',  13.8000,2,   2,  11,   1,1.03017485, -27.262126, 1.10000, 0.90000, 1.10000, 0.90000
 2025,'WICHITA F~10', 161.0000,1,   2,  11,   1,0.97071654,  -3.491361, 1.10000, 0.90000, 1.10000, 0.90000
 2026,'WHEELER 0   ', 161.0000,1,   2,  10,   1,0.99546182,  23.136820, 1.10000, 0.90000, 1.10000, 0.90000
 2027,'DEPORT 0    ', 161.0000,1,   2,  11,   1,1.02301729, -31.084191, 1.10000, 0.90000, 1.10000, 0.90000
 2028,'WICHITA FA~9', 161.0000,1,   2,  11,   1,0.98216522,  -3.812169, 1.10000, 0.90000, 1.10000, 0.90000
 2029,'SILVERTON 0 ', 161.0000,2,   2,  10,   1,1.00000000,  37.220330, 1.10000, 0.90000, 1.10000, 0.90000
 2030,'BONHAM 0    ', 161.0000,1,   2,  11,   1,1.01029551, -32.392531, 1.10000, 0.90000, 1.10000, 0.90000
 2031,'MATADOR 0   ', 161.0000,1,   2,  10,   1,1.00022745,  26.689581, 1.10000, 0.90000, 1.10000, 0.90000
 2032,'ARTHUR CIT~1', 161.0000,1,   2,  11,   1,1.02676558, -29.589667, 1.10000, 0.90000, 1.10000, 0.90000
 2033,'LEONARD 0   ', 161.0000,1,   2,  11,   1,1.01327264, -32.333596, 1.10000, 0.90000, 1.10000, 0.90000
 2034,'GORDONVILL~1', 161.0000,1,   2,  11,   1,1.01577115, -35.876788, 1.10000, 0.90000, 1.10000, 0.90000
 2035,'KNOX CITY 0 ', 161.0000,2,   2,  10,   1,1.00000000,  32.800443, 1.10000, 0.90000, 1.10000, 0.90000
 2036,'WICHITA F~13', 161.0000,1,   2,  11,   1,0.97650087,  -1.446056, 1.10000, 0.90000, 1.10000, 0.90000
 2037,'LINDSAY 0   ', 161.0000,1,   2,  11,   1,1.00580990, -20.165160, 1.10000, 0.90000, 1.10000, 0.90000
 2038,'ECTOR 0     ', 161.0000,1,   2,  11,   1,1.02617955, -30.604961, 1.10000, 0.90000, 1.10000, 0.90000
 2039,'SUNSET 0    ', 161.0000,1,   2,  11,   1,0.98796511, -18.822080, 1.10000, 0.90000, 1.10000, 0.90000
 2040,'CLARKSVILL~1', 161.0000,1,   2,  11,   1,1.02848923, -30.115264, 1.10000, 0.90000, 1.10000, 0.90000
 2041,'PANHANDLE ~5', 161.0000,2,   2,  10,   1,1.00000000,  33.146389, 1.10000, 0.90000, 1.10000, 0.90000
 2042,'PANHANDLE ~6',  18.0000,2,   2,  10,   1,1.00999999,  36.098257, 1.10000, 0.90000, 1.10000, 0.90000
 2043,'SADLER 0    ', 161.0000,1,   2,  11,   1,1.01569772, -35.904863, 1.10000, 0.90000, 1.10000, 0.90000
 2044,'WHITESBORO 0', 161.0000,1,   2,  11,   1,1.00376213, -25.769974, 1.10000, 0.90000, 1.10000, 0.90000
 2045,'SHEPPARD A~1', 161.0000,1,   2,  11,   1,0.97473162,  -3.542033, 1.10000, 0.90000, 1.10000, 0.90000
 2046,'POTTSBORO 0 ', 161.0000,1,   2,  11,   1,1.01627243, -35.771388, 1.10000, 0.90000, 1.10000, 0.90000
 2047,'BELLS 0     ', 161.0000,1,   2,  11,   1,1.02421665, -31.769529, 1.10000, 0.90000, 1.10000, 0.90000
 2048,'CROSBYTON 0 ', 161.0000,2,   2,  10,   1,1.00000000,  29.029311, 1.10000, 0.90000, 1.10000, 0.90000
 2049,'ELECTRA 0   ', 161.0000,2,   2,  10,   1,1.00000000,  11.321173, 1.10000, 0.90000, 1.10000, 0.90000
 2050,'PATTONVILL~1', 161.0000,1,   2,  11,   1,1.01772547, -32.097190, 1.10000, 0.90000, 1.10000, 0.90000
 2051,'HENRIETTA 0 ', 161.0000,2,   2,  11,   1,1.00000000, -10.422934, 1.10000, 0.90000, 1.10000, 0.90000
 2052,'PANHANDLE~13', 161.0000,1,   2,  10,   1,0.99212527,  31.799657, 1.10000, 0.90000, 1.10000, 0.90000
 2053,'BOWIE 0     ', 161.0000,1,   2,  11,   1,0.98978955, -21.057977, 1.10000, 0.90000, 1.10000, 0.90000
 2054,'WICHITA FA~1', 500.0000,1,   2,  11,   1,0.97527444,  -3.416698, 1.10000, 0.90000, 1.10000, 0.90000
 2055,'WICHITA FA~2', 161.0000,1,   2,  11,   1,0.97327459,  -2.886197, 1.10000, 0.90000, 1.10000, 0.90000
 2056,'WICHITA FA~3',  18.0000,1,   2,  11,   1,0.97527444,  -3.416698, 1.10000, 0.90000, 1.10000, 0.90000
 2057,'WICHITA FA~4',  18.0000,2,   2,  11,   1,0.99000001,  -1.573756, 1.10000, 0.90000, 1.10000, 0.90000
 2058,'WHITE DEER 0', 161.0000,1,   2,  10,   1,0.99974734,  31.927870, 1.10000, 0.90000, 1.10000, 0.90000
 2059,'WHITE DEER 1',  13.8000,2,   2,  10,   1,1.00000000,  35.401297, 1.10000, 0.90000, 1.10000, 0.90000
 2060,'ROXTON 0    ', 161.0000,1,   2,  11,   1,1.02046597, -31.223035, 1.10000, 0.90000, 1.10000, 0.90000
 2061,'VERNON 1 0  ', 161.0000,1,   2,  10,   1,0.99934411,  16.950701, 1.10000, 0.90000, 1.10000, 0.90000
 2062,'VERNON 1 1  ',  18.0000,2,   2,  10,   1,1.01181471,  19.286158, 1.10000, 0.90000, 1.10000, 0.90000
 2063,'DENISON 2 0 ', 161.0000,1,   2,  11,   1,1.01878071, -35.346861, 1.10000, 0.90000, 1.10000, 0.90000
 2064,'SUMNER 0    ', 161.0000,1,   2,  11,   1,1.02513182, -30.433530, 1.10000, 0.90000, 1.10000, 0.90000
 2065,'GAINESVILL~1', 161.0000,2,   2,  11,   1,1.00177717, -22.116287, 1.10000, 0.90000, 1.10000, 0.90000
 2066,'ASPERMONT 0 ', 161.0000,1,   2,  10,   1,0.98273629,  25.106047, 1.10000, 0.90000, 1.10000, 0.90000
 2067,'WICHITA F~11', 161.0000,1,   2,  11,   1,0.97051609,  -3.909704, 1.10000, 0.90000, 1.10000, 0.90000
 2068,'WINDTHORST 0', 161.0000,1,   2,  11,   1,0.98680562,  -3.238815, 1.10000, 0.90000, 1.10000, 0.90000
 2069,'HOWE 0      ', 161.0000,1,   2,  11,   1,1.02999997, -34.249772, 1.10000, 0.90000, 1.10000, 0.90000
 2070,'ARCHER 2 0  ', 161.0000,1,   2,  11,   1,0.99107409,  -3.298022, 1.10000, 0.90000, 1.10000, 0.90000
 2071,'ARCHER 2 1  ',  18.0000,2,   2,  11,   1,1.00000000,   0.404471, 1.10000, 0.90000, 1.10000, 0.90000
 2072,'COLLINSVIL~1', 161.0000,1,   2,  11,   1,1.02487302, -32.569054, 1.10000, 0.90000, 1.10000, 0.90000
 2073,'JAYTON 0    ', 161.0000,1,   2,  10,   1,0.98034358,  19.260570, 1.10000, 0.90000, 1.10000, 0.90000
 2074,'JAYTON 1    ', 115.0000,1,   2,  10,   1,0.98952764,  21.689454, 1.10000, 0.90000, 1.10000, 0.90000
 2075,'JAYTON 2    ', 115.0000,1,   2,  10,   1,0.98952764,  21.689454, 1.10000, 0.90000, 1.10000, 0.90000
 2076,'JAYTON 3    ',  24.0000,2,   2,  10,   1,0.98578399,  20.233138, 1.10000, 0.90000, 1.10000, 0.90000
 2077,'MUENSTER 1 0', 161.0000,1,   2,  11,   1,1.01309049, -17.486609, 1.10000, 0.90000, 1.10000, 0.90000
 2078,'MUENSTER 1 1',  13.8000,2,   2,  11,   1,1.01999998, -14.155734, 1.10000, 0.90000, 1.10000, 0.90000
 2079,'PADUCAH 0   ', 161.0000,1,   2,  10,   1,1.00088429,  26.721898, 1.10000, 0.90000, 1.10000, 0.90000
 2080,'NOCONA 0    ', 161.0000,1,   2,  11,   1,0.99855280, -12.890424, 1.10000, 0.90000, 1.10000, 0.90000
 2081,'DODD CITY 0 ', 161.0000,2,   2,  11,   1,1.02549243, -30.143643, 1.10000, 0.90000, 1.10000, 0.90000
 2082,'WICHITA FA~5', 161.0000,1,   2,  11,   1,0.98007238,  -0.303390, 1.10000, 0.90000, 1.10000, 0.90000
 2083,'WICHITA FA~6',  20.0000,2,   2,  11,   1,0.99493665,   0.226450, 1.10000, 0.90000, 1.10000, 0.90000
 2084,'WICHITA FA~7',  20.0000,1,   2,  11,   1,0.98007238,  -0.303390, 1.10000, 0.90000, 1.10000, 0.90000
 2085,'WICHITA FA~8',  20.0000,1,   2,  11,   1,0.98007238,  -0.303390, 1.10000, 0.90000, 1.10000, 0.90000
 2086,'MONTAGUE 0  ', 161.0000,1,   2,  11,   1,0.99101245, -16.553795, 1.10000, 0.90000, 1.10000, 0.90000
 2087,'SPUR 0      ', 161.0000,2,   2,  10,   1,1.00000000,  25.072547, 1.10000, 0.90000, 1.10000, 0.90000
 2088,'ARCHER 1 0  ', 161.0000,1,   2,  11,   1,0.98913300,  -3.114611, 1.10000, 0.90000, 1.10000, 0.90000
 2089,'ARCHER 1 1  ',  24.0000,2,   2,  11,   1,1.00000000,   0.514912, 1.10000, 0.90000, 1.10000, 0.90000
 2090,'ANNONA 0    ', 161.0000,1,   2,  11,   1,1.02451193, -31.216440, 1.10000, 0.90000, 1.10000, 0.90000
 2091,'SEYMOUR 0   ', 161.0000,2,   2,  10,   1,1.00000000,  30.549848, 1.10000, 0.90000, 1.10000, 0.90000
 2092,'DENISON 1 0 ', 161.0000,1,   2,  11,   1,1.01987362, -33.669851, 1.10000, 0.90000, 1.10000, 0.90000
 2093,'PANHANDLE~10', 161.0000,2,   2,  10,   1,0.99928486,  25.101685, 1.10000, 0.90000, 1.10000, 0.90000
 2094,'PANHANDLE~11',  13.8000,2,   2,  10,   1,1.00000000,  25.756447, 1.10000, 0.90000, 1.10000, 0.90000
 2095,'PANHANDLE~12',  13.8000,2,   2,  10,   1,1.00000000,  25.424112, 1.10000, 0.90000, 1.10000, 0.90000
 2096,'RALLS 1 0   ', 500.0000,1,   2,  10,   1,1.00686359,  15.111006, 1.10000, 0.90000, 1.10000, 0.90000
 2097,'RALLS 1 1   ', 230.0000,1,   2,  10,   1,0.99962837,  16.697770, 1.10000, 0.90000, 1.10000, 0.90000
 2098,'RALLS 1 2   ', 161.0000,1,   2,  10,   1,0.97153717,  25.706310, 1.10000, 0.90000, 1.10000, 0.90000
 2099,'RALLS 1 3   ',  18.0000,2,   2,  10,   1,1.00761759,  15.257919, 1.10000, 0.90000, 1.10000, 0.90000
 2100,'RALLS 1 4   ',  18.0000,2,   2,  10,   1,1.01988447,  17.756894, 1.10000, 0.90000, 1.10000, 0.90000
 2101,'SHERMAN 1 0 ', 500.0000,1,   2,  11,   1,1.02590477, -29.151428, 1.10000, 0.90000, 1.10000, 0.90000
 2102,'SHERMAN 1 1 ', 161.0000,1,   2,  11,   1,1.02044117, -29.673070, 1.10000, 0.90000, 1.10000, 0.90000
 2103,'SHERMAN 1 2 ',  20.0000,1,   2,  11,   1,1.02590477, -29.151428, 1.10000, 0.90000, 1.10000, 0.90000
 2104,'SHERMAN 1 3 ',  20.0000,1,   2,  11,   1,1.02590477, -29.151428, 1.10000, 0.90000, 1.10000, 0.90000
 2105,'SHERMAN 1 4 ',  20.0000,1,   2,  11,   1,1.02590477, -29.151428, 1.10000, 0.90000, 1.10000, 0.90000
 2106,'WHITEWRIGH~1', 161.0000,1,   2,  11,   1,1.01087081, -32.597822, 1.10000, 0.90000, 1.10000, 0.90000
 2107,'SHERMAN 2 0 ', 161.0000,1,   2,  11,   1,1.01517475, -30.260692, 1.10000, 0.90000, 1.10000, 0.90000
 2108,'ROCHESTER 0 ', 161.0000,1,   2,  10,   1,0.99770325,  11.735911, 1.10000, 0.90000, 1.10000, 0.90000
 2109,'BURKBURNET~1', 161.0000,2,   2,  11,   1,1.00000000,   0.423110, 1.10000, 0.90000, 1.10000, 0.90000
...
0 / END OF BUS DATA, BEGIN LOAD DATA
@!   I,'ID',STAT,AREA,ZONE,      PL,        QL,        IP,        IQ,        YP,        YQ, OWNER,SCALE,INTRPT,  DGENP,     DGENQ, DGENM
 1001,'1 ',1,   1,   9,    27.015,     5.888,     0.000,     0.000,     0.000,     0.000,   1,1, 0,     0.000,     0.000, 1
 1002,'1 ',1,   1,   9,    20.038,     4.367,     0.000,     0.000,     0.000,     0.000,   1,1, 0,     0.000,     0.000, 1
 1007,'1 ',1,   1,   9,     9.110,     1.986,     0.000,     0.000,     0.000,     0.000,   1,1, 0,     0.000,     0.000, 1
 1012,'1 ',1,   1,   9,     3.880,     0.846,     0.000,     0.000,     0.000,     0.000,   1,1, 0,     0.000,     0.000, 1
 1013,'1 ',1,   1,   9,     0.663,     0.144,     0.000,     0.000,     0.000,     0.000,   1,1, 0,     0.000,     0.000, 1
 1013,'2 ',1,   1,   9,     1.973,     0.430,     0.000,     0.000,     0.000,     0.000,   1,1, 0,     0.000,     0.000, 1
 1013,'3 ',1,   1,   9,    35.357,     7.706,     0.000,     0.000,     0.000,     0.000,   1,1, 0,     0.000,     0.000, 1
 1014,'1 ',1,   1,   9,     2.886,     0.629,     0.000,     0.000,     0.000,     0.000,   1,1, 0,     0.000,     0.000, 1
 1015,'1 ',1,   1,   9,     9.762,     2.128,     0.000,     0.000,     0.000,     0.000,   1,1, 0,     0.000,     0.000, 1
 1016,'1 ',1,   1,   9,     3.756,     0.819,     0.000,     0.000,     0.000,     0.000,   1,1, 0,     0.000,     0.000, 1
 1017,'1 ',1,   1,   9,    23.848,     5.198,     0.000,     0.000,     0.000,     0.000,   1,1, 0,     0.000,     0.000, 1
 1018,'1 ',1,   1,   9,     0.090,     0.020,     0.000,     0.000,     0.000,     0.000,   1,1, 0,     0.000,     0.000, 1
 1019,'1 ',1,   1,   9,    80.309,    17.503,     0.000,     0.000,     0.000,     0.000,   1,1, 0,     0.000,     0.000, 1
 1024,'1 ',1,   1,   9,    81.951,    17.861,     0.000,     0.000,     0.000,     0.000,   1,1, 0,     0.000,     0.000, 1
 1027,'1 ',1,   1,   9,     0.784,     0.171,     0.000,     0.000,     0.000,     0.000,   1,1, 0,     0.000,     0.000, 1
 1027,'2 ',1,   1,   9,   130.790,    28.506,     0.000,     0.000,     0.000,     0.000,   1,1, 0,     0.000,     0.000, 1
 1028,'1 ',1,   1,   9,     1.852,     0.404,     0.000,     0.000,     0.000,     0.000,   1,1, 0,     0.000,     0.000, 1
 1028,'2 ',1,   1,   9,     0.979,     0.213,     0.000,     0.000,     0.000,     0.000,   1,1, 0,     0.000,     0.000, 1
 1028,'3 ',1,   1,   9,     6.369,     1.388,     0.000,     0.000,     0.000,     0.000,   1,1, 0,     0.000,     0.000, 1
 1028,'4 ',1,   1,   9,     3.818,     0.832,     0.000,     0.000,     0.000,     0.000,   1,1, 0,     0.000,     0.000, 1
 1029,'1 ',1,   1,   9,   108.139,    23.569,     0.000,     0.000,     0.000,     0.000,   1,1, 0,     0.000,     0.000, 1
 1030,'1 ',1,   1,   9,    29.960,     6.530,     0.000,     0.000,     0.000,     0.000,   1,1, 0,     0.000,     0.000, 1
 1030,'2 ',1,   1,   9,     2.055,     0.448,     0.000,     0.000,     0.000,     0.000,   1,1, 0,     0.000,     0.000, 1
 1031,'1 ',1,   1,   9,    12.020,     2.620,     0.000,     0.000,     0.000,     0.000,   1,1, 0,     0.000,     0.000, 1
 1036,'1 ',1,   1,   9,     1.322,     0.288,     0.000,     0.000,     0.000,     0.000,   1,1, 0,     0.000,     0.000, 1
 1036,'2 ',1,   1,   9,    16.353,     3.564,     0.000,     0.000,     0.000,     0.000,   1,1, 0,     0.000,     0.000, 1
 1037,'1 ',1,   1,   9,   132.908,    28.967,     0.000,     0.000,     0.000,     0.000,   1,1, 0,     0.000,     0.000, 1
 1040,'1 ',1,   1,   9,    57.665,    12.568,     0.000,     0.000,     0.000,     0.000,   1,1, 0,     0.000,     0.000, 1
 1044,'1 ',1,   1,   9,     5.866,     1.278,     0.000,     0.000,     0.000,     0.000,   1,1, 0,     0.000,     0.000, 1
 1044,'2 ',1,   1,   9,    13.221,     2.881,     0.000,     0.000,     0.000,     0.000,   1,1, 0,     0.000,     0.000, 1
 1045,'1 ',1,   1,   9,   128.131,    27.926,     0.000,     0.000,     0.000,     0.000,   1,1, 0,     0.000,     0.000, 1
 1046,'1 ',1,   1,   9,     0.008,     0.002,     0.000,     0.000,     0.000,     0.000,   1,1, 0,     0.000,     0.000, 1
 1046,'2 ',1,   1,   9,    14.403,     3.139,     0.000,     0.000,     0.000,     0.000,   1,1, 0,     0.000,     0.000, 1
 1054,'1 ',1,   1,   9,     2.309,     0.503,     0.000,     0.000,     0.000,     0.000,   1,1, 0,     0.000,     0.000, 1
 1054,'2 ',1,   1,   9,     0.675,     0.147,     0.000,     0.000,     0.000,     0.000,   1,1, 0,     0.000,     0.000, 1
 1054,'3 ',1,   1,   9,    16.501,     3.596,     0.000,     0.000,     0.000,     0.000,   1,1, 0,     0.000,     0.000, 1
 1055,'1 ',1,   1,   9,     5.171,     1.127,     0.000,     0.000,     0.000,     0.000,   1,1, 0,     0.000,     0.000, 1
 1058,'1 ',1,   1,   9,     5.312,     1.158,     0.000,     0.000,     0.000,     0.000,   1,1, 0,     0.000,     0.000, 1
 1058,'2 ',1,   1,   9,    12.180,     2.655,     0.000,     0.000,     0.000,     0.000,   1,1, 0,     0.000,     0.000, 1
 1064,'1 ',1,   1,   9,     8.568,     1.867,     0.000,     0.000,     0.000,     0.000,   1,1, 0,     0.000,     0.000, 1
 1064,'2 ',1,   1,   9,   152.318,    33.198,     0.000,     0.000,     0.000,     0.000,   1,1, 0,     0.000,     0.000, 1
 1067,'1 ',1,   1,   9,   132.015,    28.773,     0.000,     0.000,     0.000,     0.000,   1,1, 0,     0.000,     0.000, 1
 1068,'1 ',1,   1,   9,     0.897,     0.195,     0.000,     0.000,     0.000,     0.000,   1,1, 0,     0.000,     0.000, 1
 1068,'2 ',1,   1,   9,    76.327,    16.635,     0.000,     0.000,     0.000,     0.000,   1,1, 0,     0.000,     0.000, 1
 1071,'1 ',1,   1,   9,   118.903,    25.915,     0.000,     0.000,     0.000,     0.000,   1,1, 0,     0.000,     0.000, 1
 1083,'1 ',1,   1,   9,    51.928,    11.318,     0.000,     0.000,     0.000,     0.000,   1,1, 0,     0.000,     0.000, 1
 1085,'1 ',1,   1,   9,     3.799,     0.828,     0.000,     0.000,     0.000,     0.000,   1,1, 0,     0.000,     0.000, 1
 1085,'2 ',1,   1,   9,    23.887,     5.206,     0.000,     0.000,     0.000,     0.000,   1,1, 0,     0.000,     0.000, 1
 1086,'1 ',1,   1,   9,    51.574,    11.240,     0.000,     0.000,     0.000,     0.000,   1,1, 0,     0.000,     0.000, 1
 1087,'1 ',1,   1,   9,     1.182,     0.258,     0.000,     0.000,     0.000,     0.000,   1,1, 0,     0.000,     0.000, 1
 1089,'1 ',1,   1,   9,     1.080,     0.235,     0.000,     0.000,     0.000,     0.000,   1,1, 0,     0.000,     0.000, 1
 1089,'2 ',1,   1,   9,    51.706,    11.269,     0.000,     0.000,     0.000,     0.000,   1,1, 0,     0.000,     0.000, 1
 1091,'1 ',1,   1,   9,     6.127,     1.335,     0.000,     0.000,     0.000,     0.000,   1,1, 0,     0.000,     0.000, 1
 1091,'2 ',1,   1,   9,     8.982,     1.958,     0.000,     0.000,     0.000,     0.000,   1,1, 0,     0.000,     0.000, 1
 2001,'1 ',1,   2,  11,    18.599,     4.054,     0.000,     0.000,     0.000,     0.000,   1,1, 0,     0.000,     0.000, 1
 2001,'2 ',1,   2,  11,    44.265,     9.647,     0.000,     0.000,     0.000,     0.000,   1,1, 0,     0.000,     0.000, 1
 2007,'1 ',1,   2,  11,    12.402,     2.703,     0.000,     0.000,     0.000,     0.000,   1,1, 0,     0.000,     0.000, 1
 2008,'1 ',1,   2,  10,    10.479,     2.284,     0.000,     0.000,     0.000,     0.000,   1,1, 0,     0.000,     0.000, 1
 2009,'1 ',1,   2,  11,    50.875,    11.088,     0.000,     0.000,     0.000,     0.000,   1,1, 0,     0.000,     0.000, 1
 2010,'1 ',1,   2,  10,     6.638,     1.447,     0.000,     0.000,     0.000,     0.000,   1,1, 0,     0.000,     0.000, 1
 2010,'2 ',1,   2,  10,    12.488,     2.722,     0.000,     0.000,     0.000,     0.000,   1,1, 0,     0.000,     0.000, 1
 2010,'3 ',1,   2,  10,     3.806,     0.830,     0.000,     0.000,     0.000,     0.000,   1,1, 0,     0.000,     0.000, 1
 2010,'4 ',1,   2,  10,     0.250,     0.054,     0.000,     0.000,     0.000,     0.000,   1,1, 0,     0.000,     0.000, 1
 2010,'5 ',1,   2,  10,    50.665,    11.042,     0.000,     0.000,     0.000,     0.000,   1,1, 0,     0.000,     0.000, 1
 2014,'1 ',1,   2,  10,     4.711,     1.027,     0.000,     0.000,     0.000,     0.000,   1,1, 0,     0.000,     0.000, 1
 2014,'2 ',1,   2,  10,    28.345,     6.178,     0.000,     0.000,     0.000,     0.000,   1,1, 0,     0.000,     0.000, 1
 2015,'1 ',1,   2,  11,     6.092,     1.328,     0.000,     0.000,     0.000,     0.000,   1,1, 0,     0.000,     0.000, 1
 2016,'1 ',1,   2,  11,    90.047,    19.626,     0.000,     0.000,     0.000,     0.000,   1,1, 0,     0.000,     0.000, 1
 2020,'1 ',1,   2,  11,    62.365,    13.592,     0.000,     0.000,     0.000,     0.000,   1,1, 0,     0.000,     0.000, 1
 2022,'1 ',1,   2,  11,    15.034,     3.277,     0.000,     0.000,     0.000,     0.000,   1,1, 0,     0.000,     0.000, 1
 2025,'1 ',1,   2,  11,    51.503,    11.225,     0.000,     0.000,     0.000,     0.000,   1,1, 0,     0.000,     0.000, 1
 2026,'1 ',1,   2,  10,     3.264,     0.711,     0.000,     0.000,     0.000,     0.000,   1,1, 0,     0.000,     0.000, 1
 2026,'2 ',1,   2,  10,     1.232,     0.269,     0.000,     0.000,     0.000,     0.000,   1,1, 0,     0.000,     0.000, 1
 2026,'3 ',1,   2,  10,     9.325,     2.032,     0.000,     0.000,     0.000,     0.000,   1,1, 0,     0.000,     0.000, 1
 2026,'4 ',1,   2,  10,    10.319,     2.249,     0.000,     0.000,     0.000,     0.000,   1,1, 0,     0.000,     0.000, 1
 2027,'1 ',1,   2,  11,     4.621,     1.007,     0.000,     0.000,     0.000,     0.000,   1,1, 0,     0.000,     0.000, 1
 2028,'1 ',1,   2,  11,    18.509,     4.034,     0.000,     0.000,     0.000,     0.000,   1,1, 0,     0.000,     0.000, 1
 2029,'1 ',1,   2,  10,     4.161,     0.907,     0.000,     0.000,     0.000,     0.000,   1,1, 0,     0.000,     0.000, 1
 2030,'1 ',1,   2,  11,     5.086,     1.108,     0.000,     0.000,     0.000,     0.000,   1,1, 0,     0.000,     0.000, 1
 2030,'2 ',1,   2,  11,    56.203,    12.249,     0.000,     0.000,     0.000,     0.000,   1,1, 0,     0.000,     0.000, 1
 2031,'1 ',1,   2,  10,     1.022,     0.223,     0.000,     0.000,     0.000,     0.000,   1,1, 0,     0.000,     0.000, 1
 2031,'2 ',1,   2,  10,     1.654,     0.360,     0.000,     0.000,     0.000,     0.000,   1,1, 0,     0.000,     0.000, 1
 2031,'3 ',1,   2,  10,     4.820,     1.051,     0.000,     0.000,     0.000,     0.000,   1,1, 0,     0.000,     0.000, 1
 2032,'1 ',1,   2,  11,     4.360,     0.950,     0.000,     0.000,     0.000,     0.000,   1,1, 0,     0.000,     0.000, 1
 2033,'1 ',1,   2,  11,     1.693,     0.369,     0.000,     0.000,     0.000,     0.000,   1,1, 0,     0.000,     0.000, 1
 2033,'2 ',1,   2,  11,    15.951,     3.477,     0.000,     0.000,     0.000,     0.000,   1,1, 0,     0.000,     0.000, 1
 2034,'1 ',1,   2,  11,     6.942,     1.513,     0.000,     0.000,     0.000,     0.000,   1,1, 0,     0.000,     0.000, 1
 2035,'1 ',1,   2,  10,     5.394,     1.176,     0.000,     0.000,     0.000,     0.000,   1,1, 0,     0.000,     0.000, 1
 2035,'2 ',1,   2,  10,     0.694,     0.151,     0.000,     0.000,     0.000,     0.000,   1,1, 0,     0.000,     0.000, 1
 2036,'1 ',1,   2,  11,    54.062,    11.783,     0.000,     0.000,     0.000,     0.000,   1,1, 0,     0.000,     0.000, 1
 2037,'1 ',1,   2,  11,     0.897,     0.195,     0.000,     0.000,     0.000,     0.000,   1,1, 0,     0.000,     0.000, 1
 2037,'2 ',1,   2,  11,     3.654,     0.796,     0.000,     0.000,     0.000,     0.000,   1,1, 0,     0.000,     0.000, 1
 2038,'1 ',1,   2,  11,     3.385,     0.738,     0.000,     0.000,     0.000,     0.000,   1,1, 0,     0.000,     0.000, 1
 2039,'1 ',1,   2,  11,     7.227,     1.575,     0.000,     0.000,     0.000,     0.000,   1,1, 0,     0.000,     0.000, 1
 2040,'1 ',1,   2,  11,    20.674,     4.506,     0.000,     0.000,     0.000,     0.000,   1,1, 0,     0.000,     0.000, 1
 2043,'1 ',1,   2,  11,     5.507,     1.200,     0.000,     0.000,     0.000,     0.000,   1,1, 0,     0.000,     0.000, 1
 2044,'1 ',1,   2,  11,    35.626,     7.765,     0.000,     0.000,     0.000,     0.000,   1,1, 0,     0.000,     0.000, 1
 2045,'1 ',1,   2,  11,    29.386,     6.405,     0.000,     0.000,     0.000,     0.000,   1,1, 0,     0.000,     0.000, 1
 2046,'1 ',1,   2,  11,    28.774,     6.271,     0.000,     0.000,     0.000,     0.000,   1,1, 0,     0.000,     0.000, 1
 2047,'1 ',1,   2,  11,    12.230,     2.666,     0.000,     0.000,     0.000,     0.000,   1,1, 0,     0.000,     0.000, 1
 2047,'2 ',1,   2,  11,     7.211,     1.572,     0.000,     0.000,     0.000,     0.000,   1,1, 0,     0.000,     0.000, 1
 2048,'1 ',1,   2,  10,     8.342,     1.818,     0.000,     0.000,     0.000,     0.000,   1,1, 0,     0.000,     0.000, 1
 2049,'1 ',1,   2,  10,     0.632,     0.138,     0.000,     0.000,     0.000,     0.000,   1,1, 0,     0.000,     0.000, 1
 2049,'2 ',1,   2,  10,     0.753,     0.164,     0.000,     0.000,     0.000,     0.000,   1,1, 0,     0.000,     0.000, 1
 2049,'3 ',1,   2,  10,    13.658,     2.977,     0.000,     0.000,     0.000,     0.000,   1,1, 0,     0.000,     0.000, 1
 2050,'1 ',1,   2,  11,     4.754,     1.036,     0.000,     0.000,     0.000,     0.000,   1,1, 0,     0.000,     0.000, 1
 2051,'1 ',1,   2,  11,    23.205,     5.057,     0.000,     0.000,     0.000,     0.000,   1,1, 0,     0.000,     0.000, 1
 2052,'1 ',1,   2,  10,    12.297,     2.680,     0.000,     0.000,     0.000,     0.000,   1,1, 0,     0.000,     0.000, 1
 2052,'2 ',1,   2,  10,    19.991,     4.357,     0.000,     0.000,     0.000,     0.000,   1,1, 0,     0.000,     0.000, 1
 2053,'1 ',1,   2,  11,    37.873,     8.254,     0.000,     0.000,     0.000,     0.000,   1,1, 0,     0.000,     0.000, 1
 2055,'1 ',1,   2,  11,    64.506,    14.059,     0.000,     0.000,     0.000,     0.000,   1,1, 0,     0.000,     0.000, 1
 2060,'1 ',1,   2,  11,     4.934,     1.075,     0.000,     0.000,     0.000,     0.000,   1,1, 0,     0.000,     0.000, 1
 2063,'1 ',1,   2,  11,    85.301,    18.591,     0.000,     0.000,     0.000,     0.000,   1,1, 0,     0.000,     0.000, 1
 2064,'1 ',1,   2,  11,     9.149,     1.994,     0.000,     0.000,     0.000,     0.000,   1,1, 0,     0.000,     0.000, 1
 2064,'2 ',1,   2,  11,     3.912,     0.853,     0.000,     0.000,     0.000,     0.000,   1,1, 0,     0.000,     0.000, 1
 2065,'1 ',1,   2,  11,   101.868,    22.202,     0.000,     0.000,     0.000,     0.000,   1,1, 0,     0.000,     0.000, 1
 2066,'1 ',1,   2,  10,     5.265,     1.147,     0.000,     0.000,     0.000,     0.000,   1,1, 0,     0.000,     0.000, 1
 2066,'2 ',1,   2,  10,     3.303,     0.720,     0.000,     0.000,     0.000,     0.000,   1,1, 0,     0.000,     0.000, 1
 2066,'3 ',1,   2,  10,     0.679,     0.148,     0.000,     0.000,     0.000,     0.000,   1,1, 0,     0.000,     0.000, 1
 2067,'1 ',1,   2,  11,    70.157,    15.291,     0.000,     0.000,     0.000,     0.000,   1,1, 0,     0.000,     0.000, 1
 2068,'1 ',1,   2,  11,     7.488,     1.632,     0.000,     0.000,     0.000,     0.000,   1,1, 0,     0.000,     0.000, 1
 2069,'1 ',1,   2,  11,    28.501,     6.212,     0.000,     0.000,     0.000,     0.000,   1,1, 0,     0.000,     0.000, 1
 2072,'1 ',1,   2,  11,    12.617,     2.750,     0.000,     0.000,     0.000,     0.000,   1,1, 0,     0.000,     0.000, 1
 2079,'1 ',1,   2,  10,     5.823,     1.269,     0.000,     0.000,     0.000,     0.000,   1,1, 0,     0.000,     0.000, 1
 2080,'1 ',1,   2,  11,    22.012,     4.797,     0.000,     0.000,     0.000,     0.000,   1,1, 0,     0.000,     0.000, 1
 2081,'1 ',1,   2,  11,     5.803,     1.265,     0.000,     0.000,     0.000,     0.000,   1,1, 0,     0.000,     0.000, 1
 2082,'1 ',1,   2,  11,    76.740,    16.725,     0.000,     0.000,     0.000,     0.000,   1,1, 0,     0.000,     0.000, 1
 2086,'1 ',1,   2,  11,     2.851,     0.621,     0.000,     0.000,     0.000,     0.000,   1,1, 0,     0.000,     0.000, 1
 2087,'1 ',1,   2,  10,    10.265,     2.237,     0.000,     0.000,     0.000,     0.000,   1,1, 0,     0.000,     0.000, 1
 2090,'1 ',1,   2,  11,     3.151,     0.687,     0.000,     0.000,     0.000,     0.000,   1,1, 0,     0.000,     0.000, 1
 2091,'1 ',1,   2,  10,    22.160,     4.830,     0.000,     0.000,     0.000,     0.000,   1,1, 0,     0.000,     0.000, 1
 2092,'1 ',1,   2,  11,    31.340,     6.831,     0.000,     0.000,     0.000,     0.000,   1,1, 0,     0.000,     0.000, 1
 2106,'1 ',1,   2,  11,    18.724,     4.081,     0.000,     0.000,     0.000,     0.000,   1,1, 0,     0.000,     0.000, 1
 2107,'1 ',1,   2,  11,    96.396,    21.009,     0.000,     0.000,     0.000,     0.000,   1,1, 0,     0.000,     0.000, 1
 2108,'1 ',1,   2,  10,     2.788,     0.608,     0.000,     0.000,     0.000,     0.000,   1,1, 0,     0.000,     0.000, 1
 2109,'1 ',1,   2,  11,    43.953,     9.579,     0.000,     0.000,     0.000,     0.000,   1,1, 0,     0.000,     0.000, 1
 2110,'1 ',1,   2,  11,    11.166,     2.434,     0.000,     0.000,     0.000,     0.000,   1,1, 0,     0.000,     0.000, 1
 2111,'1 ',1,   2,  11,     9.103,     1.984,     0.000,     0.000,     0.000,     0.000,   1,1, 0,     0.000,     0.000, 1
 2111,'2 ',1,   2,  11,     9.036,     1.969,     0.000,     0.000,     0.000,     0.000,   1,1, 0,     0.000,     0.000, 1
 2112,'1 ',1,   2,  11,     5.905,     1.287,     0.000,     0.000,     0.000,     0.000,   1,1, 0,     0.000,     0.000, 1
 2114,'1 ',1,   2,  11,    92.009,    20.053,     0.000,     0.000,     0.000,     0.000,   1,1, 0,     0.000,     0.000, 1
 2121,'1 ',1,   2,  11,     3.034,     0.661,     0.000,     0.000,     0.000,     0.000,   1,1, 0,     0.000,     0.000, 1
 2122,'1 ',1,   2,  11,     8.740,     1.905,     0.000,     0.000,     0.000,     0.000,   1,1, 0,     0.000,     0.000, 1
 2124,'1 ',1,   2,  11,    27.670,     6.031,     0.000,     0.000,     0.000,     0.000,   1,1, 0,     0.000,     0.000, 1
 2125,'1 ',1,   2,  11,     5.273,     1.149,     0.000,     0.000,     0.000,     0.000,   1,1, 0,     0.000,     0.000, 1
 2126,'1 ',1,   2,  11,    18.505,     4.033,     0.000,     0.000,     0.000,     0.000,   1,1, 0,     0.000,     0.000, 1
 2129,'1 ',1,   2,  11,     8.623,     1.879,     0.000,     0.000,     0.000,     0.000,   1,1, 0,     0.000,     0.000, 1
 2132,'1 ',1,   2,  10,    15.522,     3.383,     0.000,     0.000,     0.000,     0.000,   1,1, 0,     0.000,     0.000, 1
 2133,'1 ',1,   2,  11,     7.383,     1.609,     0.000,     0.000,     0.000,     0.000,   1,1, 0,     0.000,     0.000, 1
 3002,'1 ',1,   3,  28,   146.718,    31.977,     0.000,     0.000,     0.000,     0.000,   1,1, 0,     0.000,     0.000, 1
 3005,'1 ',1,   3,  28,     1.030,     0.224,     0.000,     0.000,     0.000,     0.000,   1,1, 0,     0.000,     0.000, 1
 3005,'2 ',1,   3,  28,     1.072,     0.234,     0.000,     0.000,     0.000,     0.000,   1,1, 0,     0.000,     0.000, 1
 3005,'3 ',1,   3,  28,     7.441,     1.622,     0.000,     0.000,     0.000,     0.000,   1,1, 0,     0.000,     0.000, 1
 3006,'1 ',1,   3,  27,     9.551,     2.082,     0.000,     0.000,     0.000,     0.000,   1,1, 0,     0.000,     0.000, 1
 3007,'1 ',1,   3,  27,    19.453,     4.240,     0.000,     0.000,     0.000,     0.000,   1,1, 0,     0.000,     0.000, 1
 3008,'1 ',1,   3,  27,    24.695,     5.382,     0.000,     0.000,     0.000,     0.000,   1,1, 0,     0.000,     0.000, 1
 3008,'2 ',1,   3,  27,     1.057,     0.230,     0.000,     0.000,     0.000,     0.000,   1,1, 0,     0.000,     0.000, 1
 3009,'1 ',1,   3,  28,    16.302,     3.553,     0.000,     0.000,     0.000,     0.000,   1,1, 0,     0.000,     0.000, 1
 3010,'1 ',1,   3,  28,     6.072,     1.323,     0.000,     0.000,     0.000,     0.000,   1,1, 0,     0.000,     0.000, 1
 3011,'1 ',1,   3,  28,    24.675,     5.378,     0.000,     0.000,     0.000,     0.000,   1,1, 0,     0.000,     0.000, 1
 3011,'2 ',1,   3,  28,    10.604,     2.311,     0.000,     0.000,     0.000,     0.000,   1,1, 0,     0.000,     0.000, 1
 3012,'1 ',1,   3,  28,     0.733,     0.160,     0.000,     0.000,     0.000,     0.000,   1,1, 0,     0.000,     0.000, 1
 3013,'1 ',1,   3,  27,    83.924,    18.291,     0.000,     0.000,     0.000,     0.000,   1,1, 0,     0.000,     0.000, 1
 3014,'1 ',1,   3,  28,    28.603,     6.234,     0.000,     0.000,     0.000,     0.000,   1,1, 0,     0.000,     0.000, 1
 3015,'1 ',1,   3,  27,     6.973,     1.520,     0.000,     0.000,     0.000,     0.000,   1,1, 0,     0.000,     0.000, 1
 3021,'1 ',1,   3,  27,     0.682,     0.149,     0.000,     0.000,     0.000,     0.000,   1,1, 0,     0.000,     0.000, 1
 3021,'2 ',1,   3,  27,     1.841,     0.401,     0.000,     0.000,     0.000,     0.000,   1,1, 0,     0.000,     0.000, 1
 3022,'1 ',1,   3,  27,    31.968,     6.967,     0.000,     0.000,     0.000,     0.000,   1,1, 0,     0.000,     0.000, 1
 3023,'1 ',1,   3,  27,    13.529,     2.949,     0.000,     0.000,     0.000,     0.000,   1,1, 0,     0.000,     0.000, 1
 3024,'1 ',1,   3,  28,    13.170,     2.870,     0.000,     0.000,     0.000,     0.000,   1,1, 0,     0.000,     0.000, 1
 3025,'1 ',1,   3,  28,    17.776,     3.874,     0.000,     0.000,     0.000,     0.000,   1,1, 0,     0.000,     0.000, 1
 3029,'1 ',1,   3,  28,     6.326,     1.379,     0.000,     0.000,     0.000,     0.000,   1,1, 0,     0.000,     0.000, 1
 3030,'1 ',1,   3,  27,   168.636,    36.754,     0.000,     0.000,     0.000,     0.000,   1,1, 0,     0.000,     0.000, 1
 3031,'1 ',1,   3,  27,    19.153,     4.174,     0.000,     0.000,     0.000,     0.000,   1,1, 0,     0.000,     0.000, 1
 3032,'1 ',1,   3,  27,    94.723,    20.645,     0.000,     0.000,     0.000,     0.000,   1,1, 0,     0.000,     0.000, 1
 3035,'1 ',1,   3,  28,     4.505,     0.982,     0.000,     0.000,     0.000,     0.000,   1,1, 0,     0.000,     0.000, 1
 3036,'1 ',1,   3,  28,     1.689,     0.368,     0.000,     0.000,     0.000,     0.000,   1,1, 0,     0.000,     0.000, 1
 3036,'2 ',1,   3,  28,     5.854,     1.276,     0.000,     0.000,     0.000,     0.000,   1,1, 0,     0.000,     0.000, 1
 3040,'1 ',1,   3,  27,    18.989,     4.139,     0.000,     0.000,     0.000,     0.000,   1,1, 0,     0.000,     0.000, 1
 3042,'1 ',1,   3,  27,     6.521,     1.421,     0.000,     0.000,     0.000,     0.000,   1,1, 0,     0.000,     0.000, 1
 3042,'2 ',1,   3,  27,     4.859,     1.059,     0.000,     0.000,     0.000,     0.000,   1,1, 0,     0.000,     0.000, 1
 3049,'1 ',1,   3,  27,    13.759,     2.999,     0.000,     0.000,     0.000,     0.000,   1,1, 0,     0.000,     0.000, 1
 3051,'1 ',1,   3,  28,     1.096,     0.239,     0.000,     0.000,     0.000,     0.000,   1,1, 0,     0.000,     0.000, 1
 3051,'2 ',1,   3,  28,   187.781,    40.927,     0.000,     0.000,     0.000,     0.000,   1,1, 0,     0.000,     0.000, 1
 3052,'1 ',1,   3,  28,    10.499,     2.288,     0.000,     0.000,     0.000,     0.000,   1,1, 0,     0.000,     0.000, 1
 3066,'1 ',1,   3,  28,    28.645,     6.243,     0.000,     0.000,     0.000,     0.000,   1,1, 0,     0.000,     0.000, 1
 3069,'1 ',1,   3,  27,     4.957,     1.080,     0.000,     0.000,     0.000,     0.000,   1,1, 0,     0.000,     0.000, 1
 3072,'1 ',1,   3,  27,     7.780,     1.696,     0.000,     0.000,     0.000,     0.000,   1,1, 0,     0.000,     0.000, 1
 3075,'1 ',1,   3,  28,    15.838,     3.452,     0.000,     0.000,     0.000,     0.000,   1,1, 0,     0.000,     0.000, 1
 3076,'1 ',1,   3,  28,    14.032,     3.058,     0.000,     0.000,     0.000,     0.000,   1,1, 0,     0.000,     0.000, 1
 3077,'1 ',1,   3,  27,    89.251,    19.452,     0.000,     0.000,     0.000,     0.000,   1,1, 0,     0.000,     0.000, 1
 3093,'1 ',1,   3,  28,     6.560,     1.430,     0.000,     0.000,     0.000,     0.000,   1,1, 0,     0.000,     0.000, 1
 3099,'1 ',1,   3,  27,    15.701,     3.422,     0.000,     0.000,     0.000,     0.000,   1,1, 0,     0.000,     0.000, 1
 3100,'1 ',1,   3,  27,    11.084,     2.416,     0.000,     0.000,     0.000,     0.000,   1,1, 0,     0.000,     0.000, 1
 3101,'1 ',1,   3,  28,     0.136,     0.030,     0.000,     0.000,     0.000,     0.000,   1,1, 0,     0.000,     0.000, 1
 3101,'2 ',1,   3,  28,     3.631,     0.791,     0.000,     0.000,     0.000,     0.000,   1,1, 0,     0.000,     0.000, 1
 3101,'3 ',1,   3,  28,     8.494,     1.851,     0.000,     0.000,     0.000,     0.000,   1,1, 0,     0.000,     0.000, 1
 3102,'1 ',1,   3,  27,    97.831,    21.322,     0.000,     0.000,     0.000,     0.000,   1,1, 0,     0.000,     0.000, 1
 3103,'1 ',1,   3,  27,     0.433,     0.094,     0.000,     0.000,     0.000,     0.000,   1,1, 0,     0.000,     0.000, 1
 3103,'2 ',1,   3,  27,    50.680,    11.046,     0.000,     0.000,     0.000,     0.000,   1,1, 0,     0.000,     0.000, 1
...
0 / END OF LOAD DATA, BEGIN FIXED SHUNT DATA
@!   I,'ID',STATUS,  GL,        BL
  2017,'2 ', 1,     0.000,   -17.133
  2096,'2 ', 1,     0.000,     0.000
  3051,'2 ', 0,     0.000,    80.000
  8005,'1 ', 0,     0.000,   100.000
0 / END OF FIXED SHUNT DATA, BEGIN GENERATOR DATA
@!   I,'ID',      PG,        QG,        QB,     VS,    IREG,     MBASE,     ZR,         ZX,         RT,         XT,     GTAP,STAT, RMPCT,      PT,        PB,    O1,  F1,    O2,  F2,    O3,  F3,    O4,  F4,WMOD,  WPF
 1004,'1 ',   158.250,    44.940,    44.940,   -30.380,1.01000,    0,   253.200,   0.00000,   1.00000,   0.00000,   0.00000,1.00000,1,  100.0,   211.000,    63.300,   1,1.0000,   0,1.0000,   0,1.0000,   0,1.0000,1, 1.0000
 1006,'1 ',    25.730,     4.767,     7.310,    -4.940,1.00000,    0,    41.160,   0.00000,   1.00000,   0.00000,   0.00000,1.00000,1,  100.0,    34.300,    10.290,   1,1.0000,   0,1.0000,   0,1.0000,   0,1.0000,1, 1.0000
 1007,'1 ',   216.594,     0.000,     0.000,     0.000,1.00000,    0,   601.650,   0.00000,   1.00000,   0.00000,   0.00000,1.00000,1,  100.0,   481.320,     0.000,   1,1.0000,   0,1.0000,   0,1.0000,   0,1.0000,1, 1.0000
 1009,'1 ',    61.870,     9.403,    17.570,   -11.880,1.00000,    0,    99.000,   0.00000,   1.00000,   0.00000,   0.00000,1.00000,1,  100.0,    82.500,    24.750,   1,1.0000,   0,1.0000,   0,1.0000,   0,1.0000,1, 1.0000
 1011,'1 ',    10.000,     0.000,     0.000,     0.000,1.00000,    0,    12.000,   0.00000,   1.00000,   0.00000,   0.00000,1.00000,1,  100.0,    10.000,     3.000,   1,1.0000,   0,1.0000,   0,1.0000,   0,1.0000,1, 1.0000
 1016,'1 ',   439.470,   -35.130,   381.179,  -381.179,1.00000,    0,  1220.750,   0.00000,   1.00000,   0.00000,   0.00000,1.00000,1,  100.0,   976.600,     0.000,   1,1.0000,   0,1.0000,   0,1.0000,   0,1.0000,1, 1.0000
 1016,'2 ',   125.000,   -35.130,   117.094,  -117.094,1.00000,    0,   375.000,   0.00000,   1.00000,   0.00000,   0.00000,1.00000,1,  100.0,   300.000,     0.000,   1,1.0000,   0,1.0000,   0,1.0000,   0,1.0000,1, 1.0000
 1016,'99',    10.000,   -20.000,    20.000,   -20.000,1.00000,    0,   100.000,   0.00000,   1.00000,   0.00000,   0.00000,1.00000,1,  100.0,   100.000,     0.000,   1,1.0000,   0,1.0000,   0,1.0000,   0,1.0000,1, 1.0000
 1021,'1 ',   149.630,    20.607,    42.490,   -28.730,1.00000,    0,   239.400,   0.00000,   1.00000,   0.00000,   0.00000,1.00000,1,  100.0,   199.500,    59.850,   1,1.0000,   0,1.0000,   0,1.0000,   0,1.0000,1, 1.0000
 1022,'1 ',   119.790,     0.000,     0.000,     0.000,1.00000,    0,   332.750,   0.00000,   1.00000,   0.00000,   0.00000,1.00000,1,  100.0,   266.200,     0.000,   1,1.0000,   0,1.0000,   0,1.0000,   0,1.0000,1, 1.0000
 1023,'1 ',   135.000,    12.926,    38.340,   -25.920,1.01000,    0,   216.000,   0.00000,   1.00000,   0.00000,   0.00000,1.00000,1,  100.0,   180.000,    54.000,   1,1.0000,   0,1.0000,   0,1.0000,   0,1.0000,1, 1.0000
 1023,'2 ',   109.790,     0.000,     0.000,     0.000,1.01000,    0,   332.750,   0.00000,   1.00000,   0.00000,   0.00000,1.00000,1,  100.0,   266.200,     0.000,   1,1.0000,   0,1.0000,   0,1.0000,   0,1.0000,1, 1.0000
 1023,'99',    10.000,    12.926,    20.000,   -20.000,1.01000,    0,   100.000,   0.00000,   1.00000,   0.00000,   0.00000,1.00000,1,  100.0,   100.000,     0.000,   1,1.0000,   0,1.0000,   0,1.0000,   0,1.0000,1, 1.0000
 1026,'1 ',    93.150,     9.735,    26.450,   -17.880,1.00000,    0,   149.040,   0.00000,   1.00000,   0.00000,   0.00000,1.00000,1,  100.0,   124.200,    37.260,   1,1.0000,   0,1.0000,   0,1.0000,   0,1.0000,1, 1.0000
 1027,'1 ',     1.620,     1.405,     1.405,    -1.405,1.00000,    0,     4.500,   0.00000,   1.00000,   0.00000,   0.00000,1.00000,1,  100.0,     3.600,     0.000,   1,1.0000,   0,1.0000,   0,1.0000,   0,1.0000,1, 1.0000
 1028,'1 ',   253.755,    22.548,   220.097,  -220.097,1.00000,    0,   704.875,   0.00000,   1.00000,   0.00000,   0.00000,1.00000,1,  100.0,   563.900,     0.000,   1,1.0000,   0,1.0000,   0,1.0000,   0,1.0000,1, 1.0000
 1029,'1 ',    63.135,    -3.270,    54.761,   -54.761,1.00000,    0,   175.375,   0.00000,   1.00000,   0.00000,   0.00000,1.00000,1,  100.0,   140.300,     0.000,   1,1.0000,   0,1.0000,   0,1.0000,   0,1.0000,1, 1.0000
 1030,'1 ',    22.500,     0.000,     0.000,     0.000,1.00000,    0,    62.500,   0.00000,   1.00000,   0.00000,   0.00000,1.00000,1,  100.0,    50.000,     0.000,   1,1.0000,   0,1.0000,   0,1.0000,   0,1.0000,1, 1.0000
 1032,'1 ',   209.138,     0.000,     0.000,     0.000,1.00000,    0,   580.938,   0.00000,   1.00000,   0.00000,   0.00000,1.00000,1,  100.0,   464.750,     0.000,   1,1.0000,   0,1.0000,   0,1.0000,   0,1.0000,1, 1.0000
 1033,'1 ',   208.500,    59.210,    59.210,   -40.030,1.00000,    0,   333.600,   0.00000,   1.00000,   0.00000,   0.00000,1.00000,1,  100.0,   278.000,    83.400,   1,1.0000,   0,1.0000,   0,1.0000,   0,1.0000,1, 1.0000
 1033,'2 ',   209.140,     0.000,     0.000,     0.000,1.00000,    0,   580.938,   0.00000,   1.00000,   0.00000,   0.00000,1.00000,1,  100.0,   464.750,     0.000,   1,1.0000,   0,1.0000,   0,1.0000,   0,1.0000,1, 1.0000
 1035,'1 ',    67.500,    -0.411,    19.170,   -12.960,1.00000,    0,   108.000,   0.00000,   1.00000,   0.00000,   0.00000,1.00000,1,  100.0,    90.000,    27.000,   1,1.0000,   0,1.0000,   0,1.0000,   0,1.0000,1, 1.0000
 1036,'1 ',   117.900,     0.000,     0.000,     0.000,1.00000,    0,   327.500,   0.00000,   1.00000,   0.00000,   0.00000,1.00000,1,  100.0,   262.000,     0.000,   1,1.0000,   0,1.0000,   0,1.0000,   0,1.0000,1, 1.0000
 1037,'1 ',    81.000,     0.000,     0.000,     0.000,1.00000,    0,   225.000,   0.00000,   1.00000,   0.00000,   0.00000,1.00000,1,  100.0,   180.000,     0.000,   1,1.0000,   0,1.0000,   0,1.0000,   0,1.0000,1, 1.0000
 1039,'1 ',   110.630,     9.651,    31.420,   -21.240,1.00000,    0,   177.000,   0.00000,   1.00000,   0.00000,   0.00000,1.00000,1,  100.0,   147.500,    44.250,   1,1.0000,   0,1.0000,   0,1.0000,   0,1.0000,1, 1.0000
 1040,'1 ',    72.315,   -22.823,    62.723,   -62.723,1.00000,    0,   200.875,   0.00000,   1.00000,   0.00000,   0.00000,1.00000,1,  100.0,   160.700,     0.000,   1,1.0000,   0,1.0000,   0,1.0000,   0,1.0000,1, 1.0000
 1040,'2 ',   487.755,     0.000,     0.000,     0.000,1.00000,    0,  1354.875,   0.00000,   1.00000,   0.00000,   0.00000,1.00000,1,  100.0,  1083.900,     0.000,   1,1.0000,   0,1.0000,   0,1.0000,   0,1.0000,1, 1.0000
 1042,'1 ',     0.000,     0.000,    25.960,   -17.550,1.00000,    0,   146.280,   0.00000,   1.00000,   0.00000,   0.00000,1.00000,0,  100.0,   121.900,    36.570,   1,1.0000,   0,1.0000,   0,1.0000,   0,1.0000,1, 1.0000
 1043,'1 ',    44.100,    -0.690,    12.520,    -8.470,1.00000,    0,    70.560,   0.00000,   1.00000,   0.00000,   0.00000,1.00000,1,  100.0,    58.800,    17.640,   1,1.0000,   0,1.0000,   0,1.0000,   0,1.0000,1, 1.0000
 1044,'1 ',   136.080,    72.449,   118.030,  -118.030,1.00000,    0,   378.000,   0.00000,   1.00000,   0.00000,   0.00000,1.00000,1,  100.0,   302.400,     0.000,   1,1.0000,   0,1.0000,   0,1.0000,   0,1.0000,1, 1.0000
 1046,'1 ',   686.025,    42.738,   595.031,  -595.031,1.00000,    0,  1905.625,   0.00000,   1.00000,   0.00000,   0.00000,1.00000,1,  100.0,  1524.500,     0.000,   1,1.0000,   0,1.0000,   0,1.0000,   0,1.0000,1, 1.0000
 1048,'1 ',     0.000,     0.000,   165.530,   -36.100,1.00000,    0,   390.240,   0.00000,   0.35000,   0.00000,   0.00000,1.00000,0,  100.0,   325.200,    97.560,   1,1.0000,   0,1.0000,   0,1.0000,   0,1.0000,0, 1.0000
 1049,'1 ',     0.000,     0.000,   165.530,   -36.100,1.00000,    0,   390.240,   0.00000,   0.23000,   0.00000,   0.00000,1.00000,0,  100.0,   325.200,    97.560,   1,1.0000,   0,1.0000,   0,1.0000,   0,1.0000,0, 1.0000
 1050,'1 ',    29.444,    17.529,    45.500,    -9.920,1.00000,    0,   107.280,   0.00000,   0.15000,   0.00000,   0.00000,1.00000,1,  100.0,    89.400,    26.820,   1,1.0000,   0,1.0000,   0,1.0000,   0,1.0000,0, 1.0000
 1051,'1 ',    29.444,     6.453,    45.500,    -9.920,1.00000,    0,   107.280,   0.00000,   0.31000,   0.00000,   0.00000,1.00000,1,  100.0,    89.400,    26.820,   1,1.0000,   0,1.0000,   0,1.0000,   0,1.0000,0, 1.0000
 1051,'99',    10.000,     6.453,    20.000,   -20.000,1.00000,    0,   100.000,   0.00000,   1.00000,   0.00000,   0.00000,1.00000,1,  100.0,   100.000,     0.000,   1,1.0000,   0,1.0000,   0,1.0000,   0,1.0000,1, 1.0000
 1052,'1 ',    29.444,    20.818,    45.500,    -9.920,1.00000,    0,   107.280,   0.00000,   0.26000,   0.00000,   0.00000,1.00000,1,  100.0,    89.400,    26.820,   1,1.0000,   0,1.0000,   0,1.0000,   0,1.0000,0, 1.0000
 1053,'1 ',     0.000,     0.000,    91.010,   -19.850,1.00000,    0,   214.560,   0.00000,   0.28000,   0.00000,   0.00000,1.00000,0,  100.0,   178.800,    53.640,   1,1.0000,   0,1.0000,   0,1.0000,   0,1.0000,0, 1.0000
 1055,'1 ',   111.330,    29.449,    96.563,   -96.563,1.00000,    0,   309.250,   0.00000,   1.00000,   0.00000,   0.00000,1.00000,1,  100.0,   247.400,     0.000,   1,1.0000,   0,1.0000,   0,1.0000,   0,1.0000,1, 1.0000
 1057,'1 ',     0.000,     0.000,    25.560,   -17.280,1.00000,    0,   144.000,   0.00000,   1.00000,   0.00000,   0.00000,1.00000,0,  100.0,   120.000,    36.000,   1,1.0000,   0,1.0000,   0,1.0000,   0,1.0000,1, 1.0000
 1059,'1 ',     0.000,     0.000,     2.850,    -0.620,1.04000,    0,     6.720,   0.00000,   0.31000,   0.00000,   0.00000,1.00000,0,  100.0,     5.600,     1.680,   1,1.0000,   0,1.0000,   0,1.0000,   0,1.0000,0, 1.0000
 1060,'1 ',     0.000,     0.000,     1.020,    -0.220,1.04000,    0,     2.400,   0.00000,   0.18000,   0.00000,   0.00000,1.00000,0,  100.0,     2.000,     0.600,   1,1.0000,   0,1.0000,   0,1.0000,   0,1.0000,0, 1.0000
 1061,'1 ',    52.501,     4.462,    45.536,   -45.536,1.00000,    0,   145.833,   0.00000,   1.00000,   0.00000,   0.00000,1.00000,1,  100.0,   116.667,     0.000,   1,1.0000,   0,1.0000,   0,1.0000,   0,1.0000,1, 1.0000
 1062,'1 ',     0.000,     0.000,     0.000,     0.000,1.01000,    0,     1.800,   0.00000,   1.00000,   0.00000,   0.00000,1.00000,0,  100.0,     1.500,     0.450,   1,1.0000,   0,1.0000,   0,1.0000,   0,1.0000,1, 1.0000
 1062,'2 ',    52.501,    11.079,    45.536,   -45.536,1.01000,    0,   145.833,   0.00000,   1.00000,   0.00000,   0.00000,1.00000,1,  100.0,   116.667,     0.000,   1,1.0000,   0,1.0000,   0,1.0000,   0,1.0000,1, 1.0000
 1063,'1 ',     0.000,     0.000,     0.000,     0.000,1.01000,    0,   276.000,   0.00000,   1.00000,   0.00000,   0.00000,1.00000,0,  100.0,   230.000,    69.000,   1,1.0000,   0,1.0000,   0,1.0000,   0,1.0000,1, 1.0000
 1063,'2 ',    52.501,     8.240,    45.536,   -45.536,1.01000,    0,   145.833,   0.00000,   1.00000,   0.00000,   0.00000,1.00000,1,  100.0,   116.667,     0.000,   1,1.0000,   0,1.0000,   0,1.0000,   0,1.0000,1, 1.0000
 1066,'1 ',    96.880,     0.291,    30.350,   -20.520,1.00000,    0,   171.000,   0.00000,   1.00000,   0.00000,   0.00000,1.00000,1,  100.0,   142.500,    42.750,   1,1.0000,   0,1.0000,   0,1.0000,   0,1.0000,1, 1.0000
 1066,'99',    10.000,     0.291,    20.000,   -20.000,1.00000,    0,   100.000,   0.00000,   1.00000,   0.00000,   0.00000,1.00000,1,  100.0,   100.000,     0.000,   1,1.0000,   0,1.0000,   0,1.0000,   0,1.0000,1, 1.0000
 1070,'1 ',   120.380,    34.190,    34.190,   -23.110,1.04000,    0,   192.600,   0.00000,   1.00000,   0.00000,   0.00000,1.00000,1,  100.0,   160.500,    48.150,   1,1.0000,   0,1.0000,   0,1.0000,   0,1.0000,1, 1.0000
 1072,'1 ',    63.279,    77.164,    97.800,   -21.330,1.01000,    0,   230.560,   0.00000,   0.29000,   0.00000,   0.00000,1.00000,1,  100.0,   192.130,    57.640,   1,1.0000,   0,1.0000,   0,1.0000,   0,1.0000,0, 1.0000
 1073,'1 ',    63.279,    47.352,    97.800,   -21.330,1.01000,    0,   230.560,   0.00000,   0.31000,   0.00000,   0.00000,1.00000,1,  100.0,   192.130,    57.640,   1,1.0000,   0,1.0000,   0,1.0000,   0,1.0000,0, 1.0000
...